<configuration>
	<input>
		<net-file value="m38.49999603681327_m12.962358080558504_m38.47398437502447_m12.932893255527242.net.xml" />
		<route-files value="map.rou.xml" />
	</input>
	<time>
		<begin value="0" />
		<end value="10000" />
	</time>
</configuration>
